[root]
type=Root
children=system
eventq_index=0
full_system=true
sim_quantum=0
time_sync_enable=false
time_sync_period=100000000000
time_sync_spin_threshold=100000000

[system]
type=ArmSystem
children=bridge clk_domain cpu cpu_clk_domain cpu_voltage_domain dvfs_handler iobus iocache l2 mem_ctrls membus pci_ide qkv_clstr realview terminal tol2bus vncserver voltage_domain workload
auto_reset_addr=true
byte_order=little
cache_line_size=64
eventq_index=0
exit_on_work_items=false
gic_cpu_addr=0
have_crypto=false
have_large_asid_64=false
have_lpae=true
have_lse=true
have_pan=true
have_secel2=true
have_security=false
have_sve=true
have_tme=false
have_vhe=false
have_virtualization=false
highest_el_is_64=true
init_param=0
m5ops_base=0
mem_mode=timing
mem_ranges=2147483648:6442450944
memories=system.mem_ctrls.dram system.qkv_clstr.attention system.qkv_clstr.key system.qkv_clstr.out_head system.qkv_clstr.output system.qkv_clstr.query system.qkv_clstr.score system.qkv_clstr.value system.realview.bootmem system.realview.flash0 system.realview.flash1 system.realview.non_trusted_sram system.realview.trusted_sram system.realview.vram
mmap_using_noreserve=false
multi_proc=true
multi_thread=false
num_work_ids=16
phys_addr_range_64=40
readfile=
redirect_paths=
reset_addr=0
semihosting=Null
shadow_rom_ranges=
shared_backstore=
sve_vl=1
symbolfile=
thermal_components=
thermal_model=Null
work_begin_ckpt_count=0
work_begin_cpu_id_exit=-1
work_begin_exit_count=0
work_cpus_ckpt_count=0
work_end_ckpt_count=0
work_end_exit_count=0
work_item_id=-1
workload=system.workload
system_port=system.membus.cpu_side_ports[0]

[system.bridge]
type=Bridge
children=power_state
clk_domain=system.clk_domain
delay=50000
eventq_index=0
power_model=
power_state=system.bridge.power_state
ranges=201326592:536870912 788529152:2147483648
req_size=16
resp_size=16
cpu_side_port=system.membus.mem_side_ports[0]
mem_side_port=system.iobus.cpu_side_ports[0]

[system.bridge.power_state]
type=PowerState
clk_gate_bins=20
clk_gate_max=1000000000000
clk_gate_min=1000
default_state=UNDEFINED
eventq_index=0
leaders=
possible_states=

[system.clk_domain]
type=SrcClockDomain
clock=1000
domain_id=-1
eventq_index=0
init_perf_level=0
voltage_domain=system.voltage_domain

[system.cpu]
type=TimingSimpleCPU
children=dcache icache interrupts isa mmu power_state tracer
branchPred=Null
checker=Null
clk_domain=system.cpu_clk_domain
cpu_id=0
do_checkpoint_insts=true
do_statistics_insts=true
eventq_index=0
function_trace=false
function_trace_start=0
interrupts=system.cpu.interrupts
isa=system.cpu.isa
max_insts_all_threads=0
max_insts_any_thread=0
mmu=system.cpu.mmu
numThreads=1
power_gating_on_idle=false
power_model=
power_state=system.cpu.power_state
progress_interval=0
pwr_gating_latency=300
simpoint_start_insts=
socket_id=0
switched_out=false
syscallRetryLatency=10000
system=system
tracer=system.cpu.tracer
workload=
dcache_port=system.cpu.dcache.cpu_side
icache_port=system.cpu.icache.cpu_side

[system.cpu.dcache]
type=Cache
children=power_state replacement_policy tags
addr_ranges=0:18446744073709551615
assoc=2
clk_domain=system.cpu_clk_domain
clusivity=mostly_incl
compressor=Null
data_latency=2
demand_mshr_reserve=1
eventq_index=0
is_read_only=false
max_miss_count=0
move_contractions=true
mshrs=4
power_model=
power_state=system.cpu.dcache.power_state
prefetch_on_access=false
prefetch_on_pf_hit=false
prefetcher=Null
replace_expansions=true
replacement_policy=system.cpu.dcache.replacement_policy
response_latency=2
sequential_access=false
size=65536
system=system
tag_latency=2
tags=system.cpu.dcache.tags
tgts_per_mshr=20
warmup_percentage=0
write_allocator=Null
write_buffers=8
writeback_clean=false
cpu_side=system.cpu.dcache_port
mem_side=system.tol2bus.cpu_side_ports[1]

[system.cpu.dcache.power_state]
type=PowerState
clk_gate_bins=20
clk_gate_max=1000000000000
clk_gate_min=1000
default_state=UNDEFINED
eventq_index=0
leaders=
possible_states=

[system.cpu.dcache.replacement_policy]
type=LRURP
eventq_index=0

[system.cpu.dcache.tags]
type=BaseSetAssoc
children=indexing_policy power_state
assoc=2
block_size=64
clk_domain=system.cpu_clk_domain
entry_size=64
eventq_index=0
indexing_policy=system.cpu.dcache.tags.indexing_policy
power_model=
power_state=system.cpu.dcache.tags.power_state
replacement_policy=system.cpu.dcache.replacement_policy
sequential_access=false
size=65536
system=system
tag_latency=2
warmup_percentage=0

[system.cpu.dcache.tags.indexing_policy]
type=SetAssociative
assoc=2
entry_size=64
eventq_index=0
size=65536

[system.cpu.dcache.tags.power_state]
type=PowerState
clk_gate_bins=20
clk_gate_max=1000000000000
clk_gate_min=1000
default_state=UNDEFINED
eventq_index=0
leaders=
possible_states=

[system.cpu.icache]
type=Cache
children=power_state replacement_policy tags
addr_ranges=0:18446744073709551615
assoc=2
clk_domain=system.cpu_clk_domain
clusivity=mostly_incl
compressor=Null
data_latency=2
demand_mshr_reserve=1
eventq_index=0
is_read_only=true
max_miss_count=0
move_contractions=true
mshrs=4
power_model=
power_state=system.cpu.icache.power_state
prefetch_on_access=false
prefetch_on_pf_hit=false
prefetcher=Null
replace_expansions=true
replacement_policy=system.cpu.icache.replacement_policy
response_latency=2
sequential_access=false
size=32768
system=system
tag_latency=2
tags=system.cpu.icache.tags
tgts_per_mshr=20
warmup_percentage=0
write_allocator=Null
write_buffers=8
writeback_clean=true
cpu_side=system.cpu.icache_port
mem_side=system.tol2bus.cpu_side_ports[0]

[system.cpu.icache.power_state]
type=PowerState
clk_gate_bins=20
clk_gate_max=1000000000000
clk_gate_min=1000
default_state=UNDEFINED
eventq_index=0
leaders=
possible_states=

[system.cpu.icache.replacement_policy]
type=LRURP
eventq_index=0

[system.cpu.icache.tags]
type=BaseSetAssoc
children=indexing_policy power_state
assoc=2
block_size=64
clk_domain=system.cpu_clk_domain
entry_size=64
eventq_index=0
indexing_policy=system.cpu.icache.tags.indexing_policy
power_model=
power_state=system.cpu.icache.tags.power_state
replacement_policy=system.cpu.icache.replacement_policy
sequential_access=false
size=32768
system=system
tag_latency=2
warmup_percentage=0

[system.cpu.icache.tags.indexing_policy]
type=SetAssociative
assoc=2
entry_size=64
eventq_index=0
size=32768

[system.cpu.icache.tags.power_state]
type=PowerState
clk_gate_bins=20
clk_gate_max=1000000000000
clk_gate_min=1000
default_state=UNDEFINED
eventq_index=0
leaders=
possible_states=

[system.cpu.interrupts]
type=ArmInterrupts
eventq_index=0

[system.cpu.isa]
type=ArmISA
decoderFlavor=Generic
eventq_index=0
fpsid=1090793632
id_aa64afr0_el1=0
id_aa64afr1_el1=0
id_aa64dfr0_el1=15790086
id_aa64dfr1_el1=0
id_aa64isar0_el1=268435456
id_aa64isar1_el1=16846864
id_aa64mmfr0_el1=15728642
id_aa64mmfr1_el1=1052704
id_aa64mmfr2_el1=65536
id_isar0=34607377
id_isar1=34677009
id_isar2=555950401
id_isar3=17899825
id_isar4=268501314
id_isar5=285212672
id_isar6=1
id_mmfr0=270536963
id_mmfr1=0
id_mmfr2=19070976
id_mmfr3=34611729
id_mmfr4=0
impdef_nop=false
midr=0
pmu=Null
sve_vl_se=1
system=system

[system.cpu.mmu]
type=ArmMMU
children=dtb dtb_walker itb itb_walker stage2_dtb stage2_dtb_walker stage2_itb stage2_itb_walker
dtb=system.cpu.mmu.dtb
dtb_walker=system.cpu.mmu.dtb_walker
eventq_index=0
itb=system.cpu.mmu.itb
itb_walker=system.cpu.mmu.itb_walker
stage2_dtb=system.cpu.mmu.stage2_dtb
stage2_dtb_walker=system.cpu.mmu.stage2_dtb_walker
stage2_itb=system.cpu.mmu.stage2_itb
stage2_itb_walker=system.cpu.mmu.stage2_itb_walker
sys=system

[system.cpu.mmu.dtb]
type=ArmTLB
eventq_index=0
is_stage2=false
size=64
sys=system

[system.cpu.mmu.dtb_walker]
type=ArmTableWalker
children=power_state
clk_domain=system.cpu_clk_domain
eventq_index=0
is_stage2=false
num_squash_per_cycle=2
power_model=
power_state=system.cpu.mmu.dtb_walker.power_state
sys=system
port=system.tol2bus.cpu_side_ports[3]

[system.cpu.mmu.dtb_walker.power_state]
type=PowerState
clk_gate_bins=20
clk_gate_max=1000000000000
clk_gate_min=1000
default_state=UNDEFINED
eventq_index=0
leaders=
possible_states=

[system.cpu.mmu.itb]
type=ArmTLB
eventq_index=0
is_stage2=false
size=64
sys=system

[system.cpu.mmu.itb_walker]
type=ArmTableWalker
children=power_state
clk_domain=system.cpu_clk_domain
eventq_index=0
is_stage2=false
num_squash_per_cycle=2
power_model=
power_state=system.cpu.mmu.itb_walker.power_state
sys=system
port=system.tol2bus.cpu_side_ports[2]

[system.cpu.mmu.itb_walker.power_state]
type=PowerState
clk_gate_bins=20
clk_gate_max=1000000000000
clk_gate_min=1000
default_state=UNDEFINED
eventq_index=0
leaders=
possible_states=

[system.cpu.mmu.stage2_dtb]
type=ArmTLB
eventq_index=0
is_stage2=true
size=32
sys=system

[system.cpu.mmu.stage2_dtb_walker]
type=ArmTableWalker
children=power_state
clk_domain=system.cpu_clk_domain
eventq_index=0
is_stage2=true
num_squash_per_cycle=2
power_model=
power_state=system.cpu.mmu.stage2_dtb_walker.power_state
sys=system

[system.cpu.mmu.stage2_dtb_walker.power_state]
type=PowerState
clk_gate_bins=20
clk_gate_max=1000000000000
clk_gate_min=1000
default_state=UNDEFINED
eventq_index=0
leaders=
possible_states=

[system.cpu.mmu.stage2_itb]
type=ArmTLB
eventq_index=0
is_stage2=true
size=32
sys=system

[system.cpu.mmu.stage2_itb_walker]
type=ArmTableWalker
children=power_state
clk_domain=system.cpu_clk_domain
eventq_index=0
is_stage2=true
num_squash_per_cycle=2
power_model=
power_state=system.cpu.mmu.stage2_itb_walker.power_state
sys=system

[system.cpu.mmu.stage2_itb_walker.power_state]
type=PowerState
clk_gate_bins=20
clk_gate_max=1000000000000
clk_gate_min=1000
default_state=UNDEFINED
eventq_index=0
leaders=
possible_states=

[system.cpu.power_state]
type=PowerState
clk_gate_bins=20
clk_gate_max=1000000000000
clk_gate_min=1000
default_state=UNDEFINED
eventq_index=0
leaders=
possible_states=ON CLK_GATED OFF

[system.cpu.tracer]
type=ExeTracer
eventq_index=0

[system.cpu_clk_domain]
type=SrcClockDomain
clock=500
domain_id=-1
eventq_index=0
init_perf_level=0
voltage_domain=system.cpu_voltage_domain

[system.cpu_voltage_domain]
type=VoltageDomain
eventq_index=0
voltage=1.0

[system.dvfs_handler]
type=DVFSHandler
domains=
enable=false
eventq_index=0
sys_clk_domain=system.clk_domain
transition_latency=100000000

[system.iobus]
type=NoncoherentXBar
children=power_state
clk_domain=system.clk_domain
eventq_index=0
forward_latency=1
frontend_latency=2
header_latency=1
power_model=
power_state=system.iobus.power_state
response_latency=2
use_default_range=false
width=16
cpu_side_ports=system.bridge.mem_side_port system.pci_ide.dma
mem_side_ports=system.realview.flash1.port system.realview.vram.port system.realview.realview_io.pio system.realview.kmi0.pio system.realview.kmi1.pio system.realview.watchdog.pio system.realview.rtc.pio system.realview.pci_host.pio system.realview.energy_ctrl.pio system.realview.pwr_ctrl.pio system.realview.vio0.pio system.realview.vio1.pio system.realview.uart0.pio system.realview.uart1.pio system.realview.uart2.pio system.realview.uart3.pio system.pci_ide.pio system.iocache.cpu_side system.qkv_clstr.local_bus.cpu_side_ports[0]

[system.iobus.power_state]
type=PowerState
clk_gate_bins=20
clk_gate_max=1000000000000
clk_gate_min=1000
default_state=UNDEFINED
eventq_index=0
leaders=
possible_states=

[system.iocache]
type=Cache
children=power_state replacement_policy tags
addr_ranges=2147483648:6442450944
assoc=8
clk_domain=system.clk_domain
clusivity=mostly_incl
compressor=Null
data_latency=50
demand_mshr_reserve=1
eventq_index=0
is_read_only=false
max_miss_count=0
move_contractions=true
mshrs=20
power_model=
power_state=system.iocache.power_state
prefetch_on_access=false
prefetch_on_pf_hit=false
prefetcher=Null
replace_expansions=true
replacement_policy=system.iocache.replacement_policy
response_latency=50
sequential_access=false
size=1024
system=system
tag_latency=50
tags=system.iocache.tags
tgts_per_mshr=12
warmup_percentage=0
write_allocator=Null
write_buffers=8
writeback_clean=false
cpu_side=system.iobus.mem_side_ports[17]
mem_side=system.membus.cpu_side_ports[1]

[system.iocache.power_state]
type=PowerState
clk_gate_bins=20
clk_gate_max=1000000000000
clk_gate_min=1000
default_state=UNDEFINED
eventq_index=0
leaders=
possible_states=

[system.iocache.replacement_policy]
type=LRURP
eventq_index=0

[system.iocache.tags]
type=BaseSetAssoc
children=indexing_policy power_state
assoc=8
block_size=64
clk_domain=system.clk_domain
entry_size=64
eventq_index=0
indexing_policy=system.iocache.tags.indexing_policy
power_model=
power_state=system.iocache.tags.power_state
replacement_policy=system.iocache.replacement_policy
sequential_access=false
size=1024
system=system
tag_latency=50
warmup_percentage=0

[system.iocache.tags.indexing_policy]
type=SetAssociative
assoc=8
entry_size=64
eventq_index=0
size=1024

[system.iocache.tags.power_state]
type=PowerState
clk_gate_bins=20
clk_gate_max=1000000000000
clk_gate_min=1000
default_state=UNDEFINED
eventq_index=0
leaders=
possible_states=

[system.l2]
type=Cache
children=power_state replacement_policy tags
addr_ranges=0:18446744073709551615
assoc=8
clk_domain=system.cpu_clk_domain
clusivity=mostly_incl
compressor=Null
data_latency=20
demand_mshr_reserve=1
eventq_index=0
is_read_only=false
max_miss_count=0
move_contractions=true
mshrs=20
power_model=
power_state=system.l2.power_state
prefetch_on_access=false
prefetch_on_pf_hit=false
prefetcher=Null
replace_expansions=true
replacement_policy=system.l2.replacement_policy
response_latency=20
sequential_access=false
size=2097152
system=system
tag_latency=20
tags=system.l2.tags
tgts_per_mshr=12
warmup_percentage=0
write_allocator=Null
write_buffers=8
writeback_clean=false
cpu_side=system.tol2bus.mem_side_ports[0]
mem_side=system.membus.cpu_side_ports[2]

[system.l2.power_state]
type=PowerState
clk_gate_bins=20
clk_gate_max=1000000000000
clk_gate_min=1000
default_state=UNDEFINED
eventq_index=0
leaders=
possible_states=

[system.l2.replacement_policy]
type=LRURP
eventq_index=0

[system.l2.tags]
type=BaseSetAssoc
children=indexing_policy power_state
assoc=8
block_size=64
clk_domain=system.cpu_clk_domain
entry_size=64
eventq_index=0
indexing_policy=system.l2.tags.indexing_policy
power_model=
power_state=system.l2.tags.power_state
replacement_policy=system.l2.replacement_policy
sequential_access=false
size=2097152
system=system
tag_latency=20
warmup_percentage=0

[system.l2.tags.indexing_policy]
type=SetAssociative
assoc=8
entry_size=64
eventq_index=0
size=2097152

[system.l2.tags.power_state]
type=PowerState
clk_gate_bins=20
clk_gate_max=1000000000000
clk_gate_min=1000
default_state=UNDEFINED
eventq_index=0
leaders=
possible_states=

[system.mem_ctrls]
type=MemCtrl
children=dram power_state
clk_domain=system.clk_domain
command_window=10000
dram=system.mem_ctrls.dram
eventq_index=0
mem_sched_policy=frfcfs
min_writes_per_switch=16
nvm=Null
power_model=
power_state=system.mem_ctrls.power_state
qos_policy=Null
qos_priorities=1
qos_priority_escalation=false
qos_q_policy=fifo
qos_requestors=               
qos_syncro_scheduler=false
qos_turnaround_policy=Null
static_backend_latency=10000
static_frontend_latency=10000
system=system
write_high_thresh_perc=85
write_low_thresh_perc=50
port=system.membus.mem_side_ports[14]

[system.mem_ctrls.dram]
type=DRAMInterface
children=power_state
IDD0=0.048
IDD02=0.003
IDD2N=0.034
IDD2N2=0.0
IDD2P0=0.0
IDD2P02=0.0
IDD2P1=0.025
IDD2P12=0.0
IDD3N=0.043000000000000003
IDD3N2=0.003
IDD3P0=0.0
IDD3P02=0.0
IDD3P1=0.037
IDD3P12=0.0
IDD4R=0.135
IDD4R2=0.0
IDD4W=0.123
IDD4W2=0.0
IDD5=0.25
IDD52=0.0
IDD6=0.03
IDD62=0.0
VDD=1.2
VDD2=2.5
activation_limit=4
addr_mapping=RoRaBaCoCh
bank_groups_per_rank=4
banks_per_rank=16
beats_per_clock=2
burst_length=8
clk_domain=system.clk_domain
conf_table_reported=true
data_clock_sync=false
device_bus_width=8
device_rowbuffer_size=1024
device_size=1073741824
devices_per_rank=8
dll=true
enable_dram_powerdown=false
eventq_index=0
image_file=
in_addr_map=true
kvm_map=true
max_accesses_per_row=16
null=false
page_policy=open_adaptive
power_model=
power_state=system.mem_ctrls.dram.power_state
range=2147483648:6442450944
ranks_per_channel=2
read_buffer_size=64
tAAD=833
tBURST=3332
tBURST_MAX=3332
tBURST_MIN=3332
tCCD_L=5000
tCCD_L_WR=5000
tCK=833
tCL=14160
tCS=1666
tPPD=0
tRAS=32000
tRCD=14160
tREFI=7800000
tRFC=350000
tRP=14160
tRRD=3332
tRRD_L=4900
tRTP=7500
tRTW=1666
tWR=15000
tWTR=5000
tWTR_L=5000
tXAW=21000
tXP=6000
tXPDLL=0
tXS=340000
tXSDLL=0
two_cycle_activate=false
write_buffer_size=128

[system.mem_ctrls.dram.power_state]
type=PowerState
clk_gate_bins=20
clk_gate_max=1000000000000
clk_gate_min=1000
default_state=UNDEFINED
eventq_index=0
leaders=
possible_states=

[system.mem_ctrls.power_state]
type=PowerState
clk_gate_bins=20
clk_gate_max=1000000000000
clk_gate_min=1000
default_state=UNDEFINED
eventq_index=0
leaders=
possible_states=

[system.membus]
type=CoherentXBar
children=badaddr_responder power_state snoop_filter
clk_domain=system.clk_domain
eventq_index=0
forward_latency=4
frontend_latency=3
header_latency=1
max_outstanding_snoops=512
max_routing_table_size=512
point_of_coherency=true
point_of_unification=true
power_model=
power_state=system.membus.power_state
response_latency=2
snoop_filter=system.membus.snoop_filter
snoop_response_latency=4
system=system
use_default_range=false
width=16
cpu_side_ports=system.system_port system.iocache.mem_side system.l2.mem_side system.qkv_clstr.coherency_bus.mem_side_ports[0]
default=system.membus.badaddr_responder.pio
mem_side_ports=system.bridge.cpu_side_port system.realview.bootmem.port system.realview.trusted_sram.port system.realview.non_trusted_sram.port system.realview.flash0.port system.realview.generic_timer_mem.pio system.realview.el2_watchdog.pio system.realview.trusted_watchdog.pio system.realview.system_watchdog.pio system.realview.generic_timer_mem.frames0.pio system.realview.generic_timer_mem.frames1.pio system.realview.gic.pio system.realview.vgic.pio system.realview.gicv2m.pio system.mem_ctrls.port

[system.membus.badaddr_responder]
type=IsaFake
children=power_state
clk_domain=system.clk_domain
eventq_index=0
fake_mem=false
pio_addr=0
pio_latency=100000
pio_size=8
power_model=
power_state=system.membus.badaddr_responder.power_state
ret_bad_addr=true
ret_data16=65535
ret_data32=4294967295
ret_data64=18446744073709551615
ret_data8=255
system=system
update_data=false
warn_access=warn
pio=system.membus.default

[system.membus.badaddr_responder.power_state]
type=PowerState
clk_gate_bins=20
clk_gate_max=1000000000000
clk_gate_min=1000
default_state=UNDEFINED
eventq_index=0
leaders=
possible_states=

[system.membus.power_state]
type=PowerState
clk_gate_bins=20
clk_gate_max=1000000000000
clk_gate_min=1000
default_state=UNDEFINED
eventq_index=0
leaders=
possible_states=

[system.membus.snoop_filter]
type=SnoopFilter
eventq_index=0
lookup_latency=1
max_capacity=8388608
system=system

[system.pci_ide]
type=IdeController
children=BAR0 BAR1 BAR2 BAR3 BAR4 BAR5 disks power_state
BAR0=system.pci_ide.BAR0
BAR1=system.pci_ide.BAR1
BAR2=system.pci_ide.BAR2
BAR3=system.pci_ide.BAR3
BAR4=system.pci_ide.BAR4
BAR5=system.pci_ide.BAR5
BIST=0
CacheLineSize=0
CapabilityPtr=0
CardbusCIS=0
ClassCode=1
Command=0
DeviceID=28945
ExpansionROM=0
HeaderType=0
InterruptLine=31
InterruptPin=1
LatencyTimer=0
MSICAPBaseOffset=0
MSICAPCapId=0
MSICAPMaskBits=0
MSICAPMsgAddr=0
MSICAPMsgCtrl=0
MSICAPMsgData=0
MSICAPMsgUpperAddr=0
MSICAPNextCapability=0
MSICAPPendingBits=0
MSIXCAPBaseOffset=0
MSIXCAPCapId=0
MSIXCAPNextCapability=0
MSIXMsgCtrl=0
MSIXPbaOffset=0
MSIXTableOffset=0
MaximumLatency=0
MinimumGrant=0
PMCAPBaseOffset=0
PMCAPCapId=0
PMCAPCapabilities=0
PMCAPCtrlStatus=0
PMCAPNextCapability=0
PXCAPBaseOffset=0
PXCAPCapId=0
PXCAPCapabilities=0
PXCAPDevCap2=0
PXCAPDevCapabilities=0
PXCAPDevCtrl=0
PXCAPDevCtrl2=0
PXCAPDevStatus=0
PXCAPLinkCap=0
PXCAPLinkCtrl=0
PXCAPLinkStatus=0
PXCAPNextCapability=0
ProgIF=133
Revision=0
Status=640
SubClassCode=1
SubsystemID=0
SubsystemVendorID=0
VendorID=32902
clk_domain=system.clk_domain
config_latency=20000
ctrl_offset=0
disks=system.pci_ide.disks
eventq_index=0
host=system.realview.pci_host
io_shift=0
pci_bus=0
pci_dev=1
pci_func=0
pio_latency=30000
power_model=
power_state=system.pci_ide.power_state
sid=0
ssid=0
system=system
dma=system.iobus.cpu_side_ports[1]
pio=system.iobus.mem_side_ports[16]

[system.pci_ide.BAR0]
type=PciIoBar
eventq_index=0
size=8

[system.pci_ide.BAR1]
type=PciIoBar
eventq_index=0
size=4

[system.pci_ide.BAR2]
type=PciIoBar
eventq_index=0
size=8

[system.pci_ide.BAR3]
type=PciIoBar
eventq_index=0
size=4

[system.pci_ide.BAR4]
type=PciIoBar
eventq_index=0
size=16

[system.pci_ide.BAR5]
type=PciBarNone
eventq_index=0

[system.pci_ide.disks]
type=IdeDisk
children=image
delay=1000000
driveID=device0
eventq_index=0
image=system.pci_ide.disks.image

[system.pci_ide.disks.image]
type=CowDiskImage
children=child
child=system.pci_ide.disks.image.child
eventq_index=0
image_file=
read_only=false
table_size=65536

[system.pci_ide.disks.image.child]
type=RawDiskImage
eventq_index=0
image_file=/gem5-SALAM/benchmarks/common/fake.iso
read_only=true

[system.pci_ide.power_state]
type=PowerState
clk_gate_bins=20
clk_gate_max=1000000000000
clk_gate_min=1000
default_state=UNDEFINED
eventq_index=0
leaders=
possible_states=

[system.qkv_clstr]
type=AccCluster
children=attention coherency_bus dma key local_bus out_head output qkv query score top value
cache_size=32kB
eventq_index=0
external_range_hi_max=4294967295
external_range_hi_min=2147483648
external_range_low_max=788529151
external_range_low_min=0
local_range_max=2147483647
local_range_min=788529152
system=system

[system.qkv_clstr.attention]
type=ScratchpadMemory
children=power_state
bandwidth=78.000000
clk_domain=system.clk_domain
conf_table_reported=false
eventq_index=0
image_file=
in_addr_map=true
kvm_map=true
latency=2000
latency_var=0
null=false
power_model=
power_state=system.qkv_clstr.attention.power_state
range=268730880:268763648
read_on_invalid=false
ready_mode=false
reset_on_scratchpad_read=true
write_on_valid=true
port=system.qkv_clstr.local_bus.mem_side_ports[8]
spm_ports=system.qkv_clstr.qkv.spm[10] system.qkv_clstr.qkv.spm[11]

[system.qkv_clstr.attention.power_state]
type=PowerState
clk_gate_bins=20
clk_gate_max=1000000000000
clk_gate_min=1000
default_state=UNDEFINED
eventq_index=0
leaders=
possible_states=

[system.qkv_clstr.coherency_bus]
type=CoherentXBar
children=power_state snoop_filter
clk_domain=system.clk_domain
eventq_index=0
forward_latency=0
frontend_latency=1
header_latency=1
max_outstanding_snoops=512
max_routing_table_size=512
point_of_coherency=true
point_of_unification=true
power_model=
power_state=system.qkv_clstr.coherency_bus.power_state
response_latency=1
snoop_filter=system.qkv_clstr.coherency_bus.snoop_filter
snoop_response_latency=4
system=system
use_default_range=false
width=2
cpu_side_ports=system.qkv_clstr.dma.dma
mem_side_ports=system.membus.cpu_side_ports[3]

[system.qkv_clstr.coherency_bus.power_state]
type=PowerState
clk_gate_bins=20
clk_gate_max=1000000000000
clk_gate_min=1000
default_state=UNDEFINED
eventq_index=0
leaders=
possible_states=

[system.qkv_clstr.coherency_bus.snoop_filter]
type=SnoopFilter
eventq_index=0
lookup_latency=1
max_capacity=8388608
system=system

[system.qkv_clstr.dma]
type=NoncoherentDma
children=power_state
buffer_size=128
clk_domain=system.clk_domain
clock_period=10
devicename=noncoherent_dma
eventq_index=0
gic=system.realview.gic
int_num=95
max_pending=8
max_req_size=64
pio_addr=268566528
pio_delay=100000
pio_size=21
power_model=
power_state=system.qkv_clstr.dma.power_state
sid=0
ssid=0
system=system
cluster_dma=system.qkv_clstr.local_bus.cpu_side_ports[1]
dma=system.qkv_clstr.coherency_bus.cpu_side_ports[0]
pio=system.qkv_clstr.local_bus.mem_side_ports[0]

[system.qkv_clstr.dma.power_state]
type=PowerState
clk_gate_bins=20
clk_gate_max=1000000000000
clk_gate_min=1000
default_state=UNDEFINED
eventq_index=0
leaders=
possible_states=

[system.qkv_clstr.key]
type=ScratchpadMemory
children=power_state
bandwidth=78.000000
clk_domain=system.clk_domain
conf_table_reported=false
eventq_index=0
image_file=
in_addr_map=true
kvm_map=true
latency=2000
latency_var=0
null=false
power_model=
power_state=system.qkv_clstr.key.power_state
range=268599552:268632320
read_on_invalid=false
ready_mode=false
reset_on_scratchpad_read=true
write_on_valid=true
port=system.qkv_clstr.local_bus.mem_side_ports[4]
spm_ports=system.qkv_clstr.qkv.spm[2] system.qkv_clstr.qkv.spm[3]

[system.qkv_clstr.key.power_state]
type=PowerState
clk_gate_bins=20
clk_gate_max=1000000000000
clk_gate_min=1000
default_state=UNDEFINED
eventq_index=0
leaders=
possible_states=

[system.qkv_clstr.local_bus]
type=NoncoherentXBar
children=power_state
clk_domain=system.clk_domain
eventq_index=0
forward_latency=0
frontend_latency=1
header_latency=1
power_model=
power_state=system.qkv_clstr.local_bus.power_state
response_latency=1
use_default_range=false
width=2
cpu_side_ports=system.iobus.mem_side_ports[18] system.qkv_clstr.dma.cluster_dma system.qkv_clstr.top.local[0]
mem_side_ports=system.qkv_clstr.dma.pio system.qkv_clstr.top.pio system.qkv_clstr.qkv.pio system.qkv_clstr.query.port system.qkv_clstr.key.port system.qkv_clstr.value.port system.qkv_clstr.output.port system.qkv_clstr.score.port system.qkv_clstr.attention.port system.qkv_clstr.out_head.port

[system.qkv_clstr.local_bus.power_state]
type=PowerState
clk_gate_bins=20
clk_gate_max=1000000000000
clk_gate_min=1000
default_state=UNDEFINED
eventq_index=0
leaders=
possible_states=

[system.qkv_clstr.out_head]
type=ScratchpadMemory
children=power_state
bandwidth=78.000000
clk_domain=system.clk_domain
conf_table_reported=false
eventq_index=0
image_file=
in_addr_map=true
kvm_map=true
latency=2000
latency_var=0
null=false
power_model=
power_state=system.qkv_clstr.out_head.power_state
range=268763712:268796480
read_on_invalid=false
ready_mode=false
reset_on_scratchpad_read=true
write_on_valid=true
port=system.qkv_clstr.local_bus.mem_side_ports[9]
spm_ports=system.qkv_clstr.qkv.spm[12] system.qkv_clstr.qkv.spm[13]

[system.qkv_clstr.out_head.power_state]
type=PowerState
clk_gate_bins=20
clk_gate_max=1000000000000
clk_gate_min=1000
default_state=UNDEFINED
eventq_index=0
leaders=
possible_states=

[system.qkv_clstr.output]
type=ScratchpadMemory
children=power_state
bandwidth=78.000000
clk_domain=system.clk_domain
conf_table_reported=false
eventq_index=0
image_file=
in_addr_map=true
kvm_map=true
latency=2000
latency_var=0
null=false
power_model=
power_state=system.qkv_clstr.output.power_state
range=268665216:268697984
read_on_invalid=false
ready_mode=false
reset_on_scratchpad_read=true
write_on_valid=true
port=system.qkv_clstr.local_bus.mem_side_ports[6]
spm_ports=system.qkv_clstr.qkv.spm[6] system.qkv_clstr.qkv.spm[7]

[system.qkv_clstr.output.power_state]
type=PowerState
clk_gate_bins=20
clk_gate_max=1000000000000
clk_gate_min=1000
default_state=UNDEFINED
eventq_index=0
leaders=
possible_states=

[system.qkv_clstr.qkv]
type=CommInterface
children=hw_interface llvm_interface power_state
cache_line_size=64
clk_domain=system.clk_domain
clock_period=10
config_size=0
data_bases=0
devicename=qkv
enable_debug_msgs=false
eventq_index=0
flags_size=1
gic=system.realview.gic
int_num=-1
pio_addr=268566656
pio_latency=100000
pio_size=64
power_model=
power_state=system.qkv_clstr.qkv.power_state
premap_data=false
reset_spm=false
system=system
pio=system.qkv_clstr.local_bus.mem_side_ports[2]
spm=system.qkv_clstr.query.spm_ports[0] system.qkv_clstr.query.spm_ports[1] system.qkv_clstr.key.spm_ports[0] system.qkv_clstr.key.spm_ports[1] system.qkv_clstr.value.spm_ports[0] system.qkv_clstr.value.spm_ports[1] system.qkv_clstr.output.spm_ports[0] system.qkv_clstr.output.spm_ports[1] system.qkv_clstr.score.spm_ports[0] system.qkv_clstr.score.spm_ports[1] system.qkv_clstr.attention.spm_ports[0] system.qkv_clstr.attention.spm_ports[1] system.qkv_clstr.out_head.spm_ports[0] system.qkv_clstr.out_head.spm_ports[1]

[system.qkv_clstr.qkv.hw_interface]
type=HWInterface
children=cycle_counts functional_units hw_statistics inst_config opcodes salam_power_model simulator_config
cycle_counts=system.qkv_clstr.qkv.hw_interface.cycle_counts
eventq_index=0
functional_units=system.qkv_clstr.qkv.hw_interface.functional_units
hw_statistics=system.qkv_clstr.qkv.hw_interface.hw_statistics
inst_config=system.qkv_clstr.qkv.hw_interface.inst_config
opcodes=system.qkv_clstr.qkv.hw_interface.opcodes
salam_power_model=system.qkv_clstr.qkv.hw_interface.salam_power_model
simulator_config=system.qkv_clstr.qkv.hw_interface.simulator_config

[system.qkv_clstr.qkv.hw_interface.cycle_counts]
type=CycleCounts
add=0
addrspacecast=1
alloca=0
and_inst=1
ashr=1
atomicrmw=1
bitcast=0
br=0
call=0
catchpad=1
cmpxchg=1
counter=0
eventq_index=0
extractelement=1
extractvalue=1
fadd=5
fcmp=1
fdiv=16
fence=0
fmul=4
fpext=0
fptosi=0
fptoui=0
fptrunc=0
frem=16
fsub=5
gep=0
icmp=0
indirectbr=0
insertelement=1
insertvalue=1
inttoptr=0
invoke=0
landingpad=0
load=0
lshr=1
mul=1
or_inst=1
phi=0
ptrtoint=0
resume=0
ret=0
sdiv=1
select=0
sext=0
shl=1
shufflevector=1
sitofp=1
srem=1
store=0
sub=1
switch_inst=0
trunc=0
udiv=1
uitofp=0
unreachable=0
urem=1
vaarg=0
xor_inst=1
zext=0

[system.qkv_clstr.qkv.hw_interface.functional_units]
type=FunctionalUnits
children=bit_register bit_shifter bitwise_operations double_adder double_divider double_multiplier float_adder float_divider float_multiplier integer_adder integer_multiplier
bit_register=system.qkv_clstr.qkv.hw_interface.functional_units.bit_register
bit_shifter=system.qkv_clstr.qkv.hw_interface.functional_units.bit_shifter
bitwise_operations=system.qkv_clstr.qkv.hw_interface.functional_units.bitwise_operations
double_adder=system.qkv_clstr.qkv.hw_interface.functional_units.double_adder
double_divider=system.qkv_clstr.qkv.hw_interface.functional_units.double_divider
double_multiplier=system.qkv_clstr.qkv.hw_interface.functional_units.double_multiplier
eventq_index=0